4mgs/circuit_plusmg_1.dss
clear
set defaultbasefrequency=60
new object=circuit.lehigh basekv=115 pu=1.0001 phases=3 bus1=sourcebus angle=30 mvasc3=20000 mvasc1=21000
edit object=vsource.source basekv=115 bus1=sourcebus.1.2.3 pu=1.00 r1=0 x1=0.0001 r0=0 x0=0.0001
new object=vsource.secondsource basekv=4.16 bus1=680.1.2.3 pu=1.00 r1=0 x1=0.0001 r0=0 x0=0.0001
new object=transformer.sub phases=3 windings=2 xhl=0.008 buses=[sourcebus.1.2.3,650.1.2.3] conns=[delta,wye] kvs=[115,4.16] kvas=[5000,5000] %rs=[0.0005,0.0005]
new object=transformer.reg1 phases=1 bank=reg1 xhl=0.01 kvas=[1666,1666] buses=[650.1,rg60.1] kvs=[2.4,2.4] %loadloss=0.01
new object=regcontrol.reg1 transformer=reg1 winding=2 vreg=121 band=2 ptratio=20 ctprim=700 r=3 x=9
new object=transformer.reg2 phases=1 bank=reg1 xhl=0.01 kvas=[1666,1666] buses=[650.2,rg60.2] kvs=[2.4,2.4] %loadloss=0.01
new object=regcontrol.reg2 transformer=reg2 winding=2 vreg=121 band=2 ptratio=20 ctprim=700 r=3 x=9
new object=transformer.reg3 phases=1 bank=reg1 xhl=0.01 kvas=[1666,1666] buses=[650.3,rg60.3] kvs=[2.4,2.4] %loadloss=0.01
new object=regcontrol.reg3 transformer=reg3 winding=2 vreg=121 band=2 ptratio=20 ctprim=700 r=3 x=9
new object=transformer.xfm1 phases=3 windings=2 xhl=2 buses=[633.1.2.3,634.1.2.3] conns=[wye,wye] kvs=[4.16,0.480] kvas=[500,500] %rs=[0.55,0.55] xht=1 xlt=1
new object=linecode.mtx601 nphases=3 basefreq=60 rmatrix=[0.3465|0.1560,0.3375|0.1580,0.1535,0.3414] xmatrix=[1.0179|0.5017,1.0478|0.4236,0.3849,1.0348] units=mi
new object=linecode.mtx602 nphases=3 basefreq=60 rmatrix=[0.7526|0.1580,0.7475|0.1560,0.1535,0.7436] xmatrix=[1.1814|0.4236,1.1983|0.5017,0.3849,1.2112] units=mi
new object=linecode.mtx603 nphases=2 basefreq=60 rmatrix=[1.3238|0.2066,1.3294] xmatrix=[1.3569|0.4591,1.3471] units=mi
new object=linecode.mtx604 nphases=2 basefreq=60 rmatrix=[1.3238|0.2066,1.3294] xmatrix=[1.3569|0.4591,1.3471] units=mi
new object=linecode.mtx605 nphases=1 basefreq=60 rmatrix=[1.3292] xmatrix=[1.3475] units=mi
new object=linecode.mtx606 nphases=3 units=mi rmatrix=[0.791721|0.318476,0.781649|0.28345,0.318476,0.791721] xmatrix=[0.438352|0.0276838,0.396697|-0.0184204,0.0276838,0.438352] cmatrix=[383.948|0,383.948|0,0,383.948]
new object=linecode.mtx607 nphases=1 basefreq=60 rmatrix=[1.3425] xmatrix=[0.5124] cmatrix=[236] units=mi
new object=loadshape.solar_634_shape npts=8760 interval=1 useactual=yes mult=[0.0,0.0,0.0,0.0,0.0,0.0,0.0,0.0,2.437755894168955,7.391327057595738,10.433723193231797,32.06192857134025,7.352297370051303,17.181700237287675,25.70392848725707,27.673967961836127,13.827066601296115,0.916557826350926,0.0,0.0,0.0,0.0,0.0,0.0,0.0,0.0,0.0,0.0,0.0,0.0,0.0,0.0,6.39670985615594,16.24530765169285,22.73959172670989,0.8970429825787073,48.814302245639105,17.454588134627063,63.382612994807864,43.58784318487293,23.012799539520945,1.9697195591073824,0.0,0.0,0.0,0.0,0.0,0.0,0.0,0.0,0.0,0.0,0.0,0.0,0.0,0.0,18.76112292095068,43.74364201957901,58.116804331025584,24.63157182620007,43.802186550895655,43.68509748826235,35.68913018919951,30.989251994811568,16.264822495465072,1.2870199425514048,0.0,0.0,0.0,0.0,0.0,0.0,0.0,0.0,0.0,0.0,0.0,0.0,0.0,0.0,28.551496100642613,65.41087708523189,92.87018176557359,110.01285231531685,116.54584616240665,113.46442033922615,99.81298733188,76.50778505124745,41.69586308538275,8.191115736785031,0.0,0.0,0.0,0.0,0.0,0.0,0.0,0.0,0.0,0.0,0.0,0.0,0.0,0.0,31.047796526128224,69.27225682835778,97.47280565657213,114.55693167499872,120.7975227809769,116.52633131863442,101.89979595362072,77.67771593116554,42.08615996082713,7.995967299062843,0.0,0.0,0.0,0.0,0.0,0.0,0.0,0.0,0.0,0.0,0.0,0.0,0.0,0.0,24.533997607338968,58.09728948725336,91.07577588494452,81.61715504938032,92.26522160863483,95.17133375333702,95.54211578500922,72.49028655794382,39.238592347441575,7.332782526279082,0.0,0.0,0.0,0.0,0.0,0.0,0.0,0.0,0.0,0.0,0.0,0.0,0.0,0.0,24.904459723539446,24.728826129589486,88.36513209343619,101.35338032799856,90.7638583000607,86.90247855693481,73.25072563411699,37.444506382284175,19.7752549661627,2.1063234655129133,0.0,0.0,0.0,0.0,0.0,0.0,0.0,0.0,0.0,0.0,0.0,0.0,0.0,0.0,25.352981214828812,59.11174144793705,15.601957638152989,20.555528801579765,46.00608423526967,53.299837074004316,43.66558264449014,28.29780313160377,15.016832240458102,1.7358613493124342,0.0,0.0,0.0,0.0,0.0,0.0,0.0,0.0,0.0,0.0,0.0,0.0,0.0,0.0,26.055195675157,59.81363599279357,32.06192857134025,68.19958025182912,53.41692613663764,24.94348941108389,31.983869196251373,26.757090220013524,13.866096288840554,6.552828606333689,0.0,0.0,0.0,0.0,0.0,0.0,0.0,0.0,0.0,0.0,0.0,0.0,0.0,0.0,12.072010323683138,29.838516043194016,48.07337801323814,82.39742888479738,47.819685044199296,62.44654032468471,63.421642682352285,51.1739987647192,28.551496100642613,5.01211569474344,0.0,0.0,0.0,0.0,0.0,0.0,0.0,0.0,0.0,0.0,0.0,0.0,0.0,0.0,31.43777348610093,69.58417441324161,97.3947462814833,114.14711995578213,120.30997160214312,116.5461660778783,102.93344284260496,80.13498666910672,47.566311990632144,11.720743135783202,0.0,0.0,0.0,0.0,0.0,0.0,0.0,0.0,0.0,0.0,0.0,0.0,0.0,0.0,29.03904727947641,65.95697279538233,92.55826418068979,112.23594492799137,119.10069111920893,116.44859185901724,103.18681589617208,78.1262374224549,46.45460572655903,11.545429457304909,0.0,0.0,0.0,0.0,0.0,0.0,0.0,0.0,0.0,0.0,0.0,0.0,0.0,0.0,28.414892194237083,65.21604856298138,91.83653487658935,84.7184156318047,94.0404325609634,85.51756448005064,77.17064990855955,61.56901218587823,36.52794855593324,8.834465750324894,0.0,0.0,0.0,0.0,0.0,0.0,0.0,0.0,0.0,0.0,0.0,0.0,0.0,0.0,11.837832198416518,28.044430078036605,50.82305149229093,64.78672199999257,74.22582799178457,68.12152087674022,40.29175408019803,32.802852803741196,18.50774986738352,3.0228812918638392,0.0,0.0,0.0,0.0,0.0,0.0,0.0,0.0,0.0,0.0,0.0,0.0,0.0,0.0,6.240591105978191,16.752373674298862,77.81431983757108,97.00476932151057,112.04111640574091,111.1437535076905,99.28640646550177,77.52191709645949,45.186780712308156,11.428340394671595,0.0,0.0,0.0,0.0,0.0,0.0,0.0,0.0,0.0,0.0,0.0,0.0,0.0,0.0,25.840532393662595,60.04781411806021,84.6985808725608,71.63227326290955,84.1915148499548,109.6225554398725,66.24937553649394,30.26752269071116,16.94752211202105,3.061910979408277,0.0,0.0,0.0,0.0,0.0,0.0,0.0,0.0,0.0,0.0,0.0,0.0,0.0,0.0,26.718060532469085,64.26014113361435,93.80625443569677,114.3227535497321,118.6716844716918,115.62928833605572,102.6797498735661,80.79817144189047,47.312619021593285,12.325383377250304,0.0,0.0,0.0,0.0,0.0,0.0,0.0,0.0,0.0,0.0,0.0,0.0,0.0,0.0,29.17533127041026,65.72279467011572,95.09327437824815,112.6259218879641,119.64678682935936,116.64342038126776,104.68849912021791,81.96842223728024,48.15111747285535,12.715680252694678,0.0,0.0,0.0,0.0,0.0,0.0,0.0,0.0,0.0,0.0,0.0,0.0,0.0,0.0,30.774588713317165,68.9993689310184,96.77059119624394,113.30862150452008,124.13232165772457,120.95332161568301,107.49671713058737,82.22179529084741,50.58919328249598,13.866096288840554,0.0,0.0,0.0,0.0,0.0,0.0,0.0,0.0,0.0,0.0,0.0,0.0,0.0,0.0,30.208978159394487,67.38059664433929,94.21574623944169,110.32476990020065,116.35101764015612,112.85978009775906,100.61245609559764,79.3355179053891,48.07337801323814,12.930023618717408,0.0,0.0,0.0,0.0,0.0,0.0,0.0,0.0,0.0,0.0,0.0,0.0,0.0,0.0,7.781304017568438,19.482852225051094,29.50708361453798,16.849947893159953,48.85333193318354,13.027597837578506,13.593208391501165,0.19514843772218668,0.0,0.0,0.0,0.0,0.0,0.0,0.0,0.0,0.0,0.0,0.0,0.0,0.0,0.0,0.0,0.0,7.176983691573009,21.082109667958,59.57977778299862,63.6363059638467,120.13433800819315,117.54078327931809,55.54276444592276,48.19014716039978,28.024915234264395,6.221396177677647,0.0,0.0,0.0,0.0,0.0,0.0,0.0,0.0,0.0,0.0,0.0,0.0,0.0,0.0,8.113056361696154,21.043079980413566,24.455938232250094,60.86679772555002,128.42302796383927,126.2581599670097,112.68446641928075,88.95025749113105,53.6702991902048,15.211660762708616,0.0,0.0,0.0,0.0,0.0,0.0,0.0,0.0,0.0,0.0,0.0,0.0,0.0,0.0,32.17869771850188,70.85199942749247,98.74031075535132,115.45397465757743,122.41629506765604,119.45195830710884,106.98965110798132,84.81566993519412,53.12420348005435,15.562927950608547,0.0,0.0,0.0,0.0,0.0,0.0,0.0,0.0,0.0,0.0,0.0,0.0,0.0,0.0,30.657819566155528,67.71202907299532,94.19623139566944,110.40282927528955,117.05323210048431,113.85471721467053,102.23122838227677,81.57812536183587,50.998685086240904,15.036347084230323,0.0,0.0,0.0,0.0,0.0,0.0,0.0,0.0,0.0,0.0,0.0,0.0,0.0,0.0,20.34086552008537,46.62991940503732,53.748358565293685,79.78403939667845,89.32071960733154,85.59594377061119,77.93140890020439,57.31733556730796,35.10432470697631,10.02423138948688,0.0,0.0,0.0,0.0,0.0,0.0,0.0,0.0,0.0,0.0,0.0,0.0,0.0,0.0,24.183050334910718,56.498351959818116,54.742975766733466,101.68545258759796,107.2823737645646,77.8338346813433,10.804185309432276,75.66928659998541,44.699229533474366,12.579076346289149,0.0,0.0,0.0,0.0,0.0,0.0,0.0,0.0,0.0,0.0,0.0,0.0,0.0,0.0,6.845231347445292,11.01884859092668,16.616089683365008,25.68441364348485,20.28232098876871,14.080759570334957,14.275588092585465,5.538696561121669,2.8472476979138714,0.058544531316656,0.0,0.0,0.0,0.0,0.0,0.0,0.0,0.0,0.0,0.0,0.0,0.0,0.0,0.0,32.217727406046315,70.20832949848094,97.74569355391155,114.77127504102144,121.71408060732784,119.0031169003478,107.6723507245373,86.53169652526266,53.26080738645989,16.869462736932174,0.0,0.0,0.0,0.0,0.0,0.0,0.0,0.0,0.0,0.0,0.0,0.0,0.0,0.0,30.599275034838872,67.65380445715033,94.66426773073105,110.89038045412336,117.67706727025198,115.25882621985524,103.79145613763922,66.61983765269443,44.328767417273895,16.752373674298862,0.0,0.0,0.0,0.0,0.0,0.0,0.0,0.0,0.0,0.0,0.0,0.0,0.0,0.0,9.556195054425311,29.311935176815798,49.90649366594,50.511133907407114,64.98187043771476,61.37386374815604,55.40616053951723,39.862747432680905,24.455938232250094,7.020864941395261,0.0,0.0,0.0,0.0,0.0,0.0,0.0,0.0,0.0,0.0,0.0,0.0,0.0,0.0,32.1982125622741,70.77394005240359,100.3005385107138,117.50175359177368,124.75647674296391,122.59160874613431,110.11010661870628,88.75510905340887,55.269556633111705,18.449205336066857,0.0,0.0,0.0,0.0,0.0,0.0,0.0,0.0,0.0,0.0,0.0,0.0,0.0,0.0,32.31530162490741,68.90179471215731,95.58114547255362,112.00208671819642,118.691199315464,116.85808366276214,105.81972022806325,85.65416838645618,55.25004178933948,18.80015260849512,0.0,0.0,0.0,0.0,0.0,0.0,0.0,0.0,0.0,0.0,0.0,0.0,0.0,0.0,32.08144341511246,27.829766796542202,65.27427317882636,81.1100890267743,92.55826418068979,90.66628408119959,78.10672257868269,22.369129610509404,16.167568192075652,10.66790131849842,0.0,0.0,0.0,0.0,0.0,0.0,0.0,0.0,0.0,0.0,0.0,0.0,0.0,0.0,0.0,24.787370660906138,66.83450093418884,93.72819506060787,122.12357241107277,122.02631810768334,111.80693828047428,90.91997705023844,57.37588009862462,20.185066685379294,0.0,0.0,0.0,0.0,0.0,0.0,0.0,0.0,0.0,0.0,0.0,0.0,0.0,0.0,23.16891828969869,61.78335555190096,92.42166027428426,123.44994195664029,104.31803700401743,117.26757546650705,115.12222231344973,89.41829382619265,34.558228996825854,16.810918205615522,0.0,0.0,0.0,0.0,0.0,0.0,0.0,0.0,0.0,0.0,0.0,0.0,0.0,0.0,17.045096330882142,22.62282257954825,17.045096330882142,25.68441364348485,17.006066643337704,71.0081181776702,64.66963293735925,46.94215690539282,16.30385218300951,2.242927371918444,0.0,0.0,0.0,0.0,0.0,0.0,0.0,0.0,0.0,0.0,0.0,0.0,0.0,0.0,1.2675050987791865,8.191115736785031,12.812934556084096,45.84996548509192,55.191497258022835,25.70392848725707,37.22984310078976,16.225792807920634,9.848597795536914,18.54677955492795,0.0,0.0,0.0,0.0,0.0,0.0,0.0,0.0,0.0,0.0,0.0,0.0,0.0,0.0,8.074026674151717,7.684049714179019,29.799486355649577,58.3704973000644,53.534015199270925,66.97110484059436,73.19218110280033,88.2675578745751,57.0639625137408,20.47746942649089,0.0,0.0,0.0,0.0,0.0,0.0,0.0,0.0,0.0,0.0,0.0,0.0,0.0,0.0,6.474769231244812,16.44045608941504,30.75507386954495,114.53741683122652,42.98320294340585,42.74902481813921,48.521899504527504,36.50843371216102,0.8970429825787073,19.034330733761745,0.0,0.0,0.0,0.0,0.0,0.0,0.0,0.0,0.0,0.0,0.0,0.0,0.0,0.0,10.355663818142922,46.02559907904189,99.48155490322395,118.74974384678065,125.36111698443099,124.75647674296391,113.36716603583672,92.28505636787872,59.73557661770471,22.525248360687154,0.0,0.0,0.0,0.0,0.0,0.0,0.0,0.0,0.0,0.0,0.0,0.0,0.0,3.2957691892032246,37.97108724866239,75.78605574714705,103.83048582518364,120.2709419145987,127.15520294958841,124.50278377392503,113.19153244188676,92.51891457767368,61.78335555190096,23.675984312304703,0.0,0.0,0.0,0.0,0.0,0.0,0.0,0.0,0.0,0.0,0.0,0.0,0.0,3.3543137205198805,36.60600793102211,73.03638226809426,99.38398068436285,115.45397465757743,122.33823569256715,120.48528528062141,113.30862150452008,89.78875594239311,59.61848755507138,22.95425500820429,0.0,0.0,0.0,0.0,0.0,0.0,0.0,0.0,0.0,0.0,0.0,0.0,0.0,4.232161774798045,38.4781532712684,75.80557059091926,105.52731748695163,118.30122235549128,124.77599158673613,104.82510302662344,99.4034955281351,76.19554755089196,60.16458326522182,12.988568150034066,0.0,0.0,0.0,0.0,0.0,0.0,0.0,0.0,0.0,0.0,0.0,0.0,0.0,0.07805937508887467,21.37451240906961,48.93139130827242,69.15516776572447,78.730877663922,92.9284063814186,98.35033379537863,65.41087708523189,57.53199884880236,40.77930525903182,13.827066601296115,0.0,0.0,0.0,0.0,0.0,0.0,0.0,0.0,0.0,0.0,0.0,0.0,0.0,0.9360726701231448,34.44113993419254,69.05791346233507,96.77059119624394,113.65956877694832,120.68043371834361,118.8278032218695,108.35505034109327,87.58485825801911,56.04983046852879,21.667235065652882,0.0,0.0,0.0,0.0,0.0,0.0,0.0,0.0,0.0,0.0,0.0,0.0,0.0,0.0,5.129204757376753,7.274237994962427,23.071344070837608,32.27627193736298,34.42162509042032,41.67634824161053,26.542746853990803,23.03231438329317,24.514482763566757,9.107673563135956,0.0,0.0,0.0,0.0,0.0,0.0,0.0,0.0,0.0,0.0,0.0,0.0,0.0,0.0,0.5656105539226657,25.158152692578287,44.75777406479103,57.94149065254728,87.62388794556354,100.1252248322355,78.3409007039493,96.90719510264948,36.56697824347768,12.520531814972491,0.0,0.0,0.0,0.0,0.0,0.0,0.0,0.0,0.0,0.0,0.0,0.0,0.0,4.115072712164733,12.77390486853966,27.537364055430594,48.541414348299725,67.1854482066171,129.9442260316573,125.45869120329209,114.30323870595987,93.9428583421023,63.382612994807864,25.567644496323208,0.0,0.0,0.0,0.0,0.0,0.0,0.0,0.0,0.0,0.0,0.0,0.0,0.0,5.2654887483106085,39.06327866896329,75.5521975373521,101.7046475158985,117.67706727025198,123.35236773777916,120.91461184361023,110.57814295376785,90.84191767514959,61.37386374815604,24.884944879767236,0.0,0.0,0.0,0.0,0.0,0.0,0.0,0.0,0.0,0.0,0.0,0.0,0.0,4.797452413249036,14.860713490280357,62.173332511873646,75.1423858181355,116.21441373375059,122.31872084879494,120.15385285196535,109.70061481496134,90.0421289959603,60.925342256866685,23.656469468532485,0.0,0.0,0.0,0.0,0.0,0.0,0.0,0.0,0.0,0.0,0.0,0.0,0.0,2.1258383092851316,7.898393080201749,38.8681302312411,36.56697824347768,50.49161906363489,69.31128651590221,56.517866803590344,72.09998968249944,35.533331354493434,11.077393122243338,0.019514843772218668,0.0,0.0,0.0,0.0,0.0,0.0,0.0,0.0,0.0,0.0,0.0,0.0,0.0,0.0,1.0141320452120193,0.5070660226060096,6.1043071150443335,39.589859535341525,27.478819524113945,63.40212783858007,68.78470564952399,45.5380479002081,4.992600850971222,23.402776499493648,0.0,0.0,0.0,0.0,0.0,0.0,0.0,0.0,0.0,0.0,0.0,0.0,0.0,7.040379785167478,44.11442405125117,83.5091351488705,111.86548281179094,129.5347342279124,135.989988615385,128.61785648608978,117.52094852007423,96.77059119624394,66.42500913044393,28.083459765581043,0.0,0.0,0.0,0.0,0.0,0.0,0.0,0.0,0.0,0.0,0.0,0.0,0.0,7.449871588912394,43.25609084074522,79.53034642763961,105.42974326809055,121.14847005340519,127.4280908469278,124.77599158673613,113.8352023708983,94.00140287341894,64.33820050870322,27.088842564141242,0.0,0.0,0.0,0.0,0.0,0.0,0.0,0.0,0.0,0.0,0.0,0.0,0.0,4.953571163426784,39.16053297235271,61.43240827947268,84.85469962273854,102.93344284260496,102.99198737392159,103.03101706146604,61.763840708128726,43.275605684517444,59.32608481395978,25.99665114384035,0.0,0.0,0.0,0.0,0.0,0.0,0.0,0.0,0.0,0.0,0.0,0.0,0.0,2.8277328541416527,24.085476116049623,54.11882068149416,64.61140832151428,78.730877663922,76.8392174799035,94.82038648090878,70.48153731129199,35.591875885810104,11.135937653559994,11.038363434698901,0.0,0.0,0.0,0.0,0.0,0.0,0.0,0.0,0.0,0.0,0.0,0.0,0.0,6.045762583727679,29.643687520943512,39.940806807769775,66.17131616140507,91.89507940790605,90.62757430912683,83.39172617076551,72.19756390136051,69.81835253850825,40.525932205464656,9.40007630424756,0.0,0.0,0.0,0.0,0.0,0.0,0.0,0.0,0.0,0.0,0.0,0.0,0.0,3.2180297295860263,17.844565094599755,47.039731124253905,48.541414348299725,60.74970866291672,73.93342525067297,85.84899690870668,75.78605574714705,67.12690367530043,48.67769833923357,15.114406459319195,0.0,0.0,0.0,0.0,0.0,0.0,0.0,0.0,0.0,0.0,0.0,0.0,0.0,8.698181759391039,43.958305301073416,78.8284518827831,103.79145613763922,117.87221570797415,127.58420959710554,123.83991891661294,111.41696132050156,89.84730047370978,58.77998910380933,25.528614808778773,0.0,0.0,0.0,0.0,0.0,0.0,0.0,0.0,0.0,0.0,0.0,0.0,0.0,9.517165366880873,47.098275655570575,84.95227384159965,112.27497461553585,128.98863851776196,135.42405814599064,132.77195888579894,108.88163120747154,99.96910608205776,63.46067236989675,30.462671128433342,0.0,0.0,0.0,0.0,0.0,0.0,0.0,0.0,0.0,0.0,0.0,0.0,0.0,9.263472397842026,43.06126231849471,73.4849037593836,112.47012305325804,127.42841076239948,132.85001826088785,129.0471830490786,115.10270746967748,89.53506297335426,59.61848755507138,25.62618902763987,0.0,0.0,0.0,0.0,0.0,0.0,0.0,0.0,0.0,0.0,0.0,0.0,0.0,9.848597795536914,4.407475453276338,86.10268987774552,37.71739427962355,46.18139791374797,63.69453057969169,136.24336166895213,121.57747670092228,100.3005385107138,67.36108180056706,30.345582065800034,0.0,0.0,0.0,0.0,0.0,0.0,0.0,0.0,0.0,0.0,0.0,0.0,0.0,10.901759528293367,48.50238466075528,84.28908906881591,109.29112301121643,124.50310368939672,130.50983658558002,128.38399827629485,116.7019649125844,97.25814237507774,67.53671539451703,30.462671128433342,0.0,0.0,0.0,0.0,0.0,0.0,0.0,0.0,0.0,0.0,0.0,0.0,0.0,11.564944301077128,51.271572983580285,88.63801999077559,115.96104068018343,132.30392255073738,138.58354334426,135.40454330221843,123.50816657248524,99.14980255909624,69.40886073476332,31.78872075852918,1.6187722866791223,0.0,0.0,0.0,0.0,0.0,0.0,0.0,0.0,0.0,0.0,0.0,0.0,11.70154820748266,50.023582728573324,86.92167348523535,112.4506082094858,127.13568810581621,127.9351568695338,125.30257245311434,113.8352023708983,93.18209935045743,65.04041496903142,29.29242033304357,1.1117062640731126,0.0,0.0,0.0,0.0,0.0,0.0,0.0,0.0,0.0,0.0,0.0,0.0,11.506399769760472,44.97243734628543,85.16693712309404,111.18278319523495,125.90721269458145,130.89981354555272,129.144437352468,111.90451249933534,92.10942277392876,63.75307511100835,28.59052578818705,0.9946172014398008,0.0,0.0,0.0,0.0,0.0,0.0,0.0,0.0,0.0,0.0,0.0,0.0,12.072010323683138,49.399427643333986,84.71809571633301,110.63668748508451,125.7706087881759,132.44020654167124,130.17808424145224,118.8278032218695,98.89642950552908,66.81498609041661,30.462671128433342,1.7550562776129772,0.0,0.0,0.0,0.0,0.0,0.0,0.0,0.0,0.0,0.0,0.0,0.0,10.979818903382244,42.4566220770276,84.6985808725608,98.54516231762916,124.40552947053564,129.16395219624025,126.08252637305976,114.6151562908437,93.78673959192456,48.0343483256937,29.311935176815798,1.4821683802735917,0.0,0.0,0.0,0.0,0.0,0.0,0.0,0.0,0.0,0.0,0.0,0.0,12.28635368970587,48.05354325399424,65.11847434412029,75.37656394340213,80.07676205326175,117.32611999782371,126.80425567716014,78.2433264850882,92.55794426521813,62.79748759711298,28.98050274815975,1.326049630095842,0.0,0.0,0.0,0.0,0.0,0.0,0.0,0.0,0.0,0.0,0.0,0.0,10.472752880776234,37.581110288689686,72.47045179869994,107.78943978717062,123.58622594757414,98.5256474738569,107.73089525585398,93.10403997536855,84.62052149747193,61.43240827947268,29.389994551904664,1.6578019742235597,0.0,0.0,0.0,0.0,0.0,0.0,0.0,0.0,0.0,0.0,0.0,0.0,9.166218094452613,32.724793428652326,32.82236764751343,18.663868617561267,50.257440938368255,68.16055056428466,126.74571114584349,115.37591528248852,95.83419861064912,66.87353062173328,30.072694168460647,2.164867996829569,0.0,0.0,0.0,0.0,0.0,0.0,0.0,0.0,0.0,0.0,0.0,0.0,14.178333789196055,51.46672142130247,85.90786135549502,83.29447186737606,125.3806318282032,129.98325571920174,128.01353616009436,117.18951609141818,97.58957480373378,68.4923029084124,31.301169579695397,2.5548449568022673,0.0,0.0,0.0,0.0,0.0,0.0,0.0,0.0,0.0,0.0,0.0,0.0,14.802168958963698,51.349632358669155,84.1915148499548,107.30188860833685,124.46407400185228,130.29517330408555,126.82377052093236,100.71003031445872,96.36109939249904,65.68376498257128,31.22311020460652,2.5353301130300485,0.0,0.0,0.0,0.0,0.0,0.0,0.0,0.0,0.0,0.0,0.0,0.0,14.607340436713187,50.394044844773795,73.67973228163412,79.8035542404507,102.32880260113785,114.06906058069323,101.97785532870957,99.16931740286846,84.62052149747193,41.57909393822111,19.931373716340453,0.9946172014398008,0.0,0.0,0.0,0.0,0.0,0.0,0.0,0.0,0.0,0.0,0.0,0.0,2.0282640904240385,8.464003634124415,13.378545110006762,25.21637730842328,13.515149016412295,8.971069656730425,30.774588713317165,42.63225567097757,3.2375445733582446,24.12450580359406,11.447855238443813,0.019514843772218668,0.0,0.0,0.0,0.0,0.0,0.0,0.0,0.0,0.0,0.0,0.0,0.0,8.074026674151717,25.11912300503386,40.194179861336934,37.65884974830689,56.36174805341259,45.84996548509192,43.11980684981136,47.078760811798354,45.36241430625814,14.002700195246087,6.474769231244812,0.0,0.0,0.0,0.0,0.0,0.0,0.0,0.0,0.0,0.0,0.0,0.0,0.0,2.398726206624518,10.160835295892413,37.93205756111796,54.938124204455654,92.7335778591681,127.27229201222171,102.7773240924272,99.8910467069689,93.41627747572407,40.77930525903182,19.58042644391219,1.1702507953897687,0.0,0.0,0.0,0.0,0.0,0.0,0.0,0.0,0.0,0.0,0.0,0.0,17.33749907199375,18.819667452267336,57.80488674614176,91.69993097018384,130.29517330408555,135.63872142748505,134.21509757852812,123.91797829170186,103.61582254368923,38.02963177997905,19.19044948393949,1.5797425991346852,0.0,0.0,0.0,0.0,0.0,0.0,0.0,0.0,0.0,0.0,0.0,0.0,20.672617864213084,62.58314423109024,99.13028771532402,125.1659685467088,139.51961601438313,144.41496256196496,141.9378570647799,128.67640101740645,106.67773352309752,75.00610182720162,35.10432470697631,3.822350055581453,0.0,0.0,0.0,0.0,0.0,0.0,0.0,0.0,0.0,0.0,0.0,0.0,20.41892489517424,60.34021685917181,94.25477592698613,117.40417937291258,130.2366287727689,133.80560577478315,132.81098857334342,119.72484620444824,98.75982559912356,69.64271894455828,33.83649969272544,3.647036377103161,0.0,0.0,0.0,0.0,0.0,0.0,0.0,0.0,0.0,0.0,0.0,0.0,20.165551841607076,58.643385197403795,91.25140947889449,118.45734110566904,132.3819819258263,73.17266625902813,135.5996917399406,123.04013023742368,102.79683893619939,70.6763658335425,34.63628837191473,4.348930921959681,0.0,0.0,0.0,0.0,0.0,0.0,0.0,0.0,0.0,0.0,0.0,0.0,19.872829185023797,57.60973830841957,90.66628408119959,114.08857542446549,61.295804373067156,104.3567467760902,106.26824171935259,79.9401581468562,51.057229617557546,39.726143526275365,19.599941287684405,1.8526304964740703,0.0,0.0,0.0,0.0,0.0,0.0,0.0,0.0,0.0,0.0,0.0,0.0,2.203897684374007,4.87551178833791,5.343548123399481,18.0982580636386,40.23320954888138,55.171982414250614,70.96908849012578,55.99128593721211,55.40616053951723,26.269539041179733,13.183716587756253,0.8384984512620514,0.0,0.0,0.0,0.0,0.0,0.0,0.0,0.0,0.0,0.0,0.0,0.0,0.8580132950342699,3.6860660646475982,13.8075517575239,21.433056940386262,22.193496016559443,23.71469408437747,16.30385218300951,18.410175648522426,15.855330691720154,8.659152071846602,3.9979836495314216,0.0,0.0,0.0,0.0,0.0,0.0,0.0,0.0,0.0,0.0,0.0,0.0,0.0,0.370462116200479,0.3509472724282603,6.1823664901332105,10.414208349459578,18.468720179839078,13.261456047373452,15.835815847947936,9.517165366880873,19.42430769373444,16.08950881698678,7.781304017568438,0.19514843772218668,0.0,0.0,0.0,0.0,0.0,0.0,0.0,0.0,0.0,0.0,0.0,0.0,21.12113935550244,57.629253152191794,88.73559420963667,110.53943318169507,69.40886073476332,60.08684380560464,80.5252835445511,63.26552393217455,100.12490491676382,32.978486397691164,34.03164813044763,4.563594203454088,0.0,0.0,0.0,0.0,0.0,0.0,0.0,0.0,0.0,0.0,0.0,0.0,5.870128989777711,28.824383997982,57.94149065254728,66.42500913044393,57.980520340091715,63.24600908840233,74.34291705441788,63.81161964232497,85.5761090113673,48.98993583958907,25.11912300503386,3.4909176269254116,0.0,0.0,0.0,0.0,0.0,0.0,0.0,0.0,0.0,0.0,0.0,0.0,23.402776499493648,61.100655935344975,83.56735976471545,97.96035683540592,114.47887229990984,119.80290557953712,115.02464809458864,104.6689842764457,85.43982502043343,50.315985469684925,25.62618902763987,3.7442906804925786,0.0,0.0,0.0,0.0,0.0,0.0,0.0,0.0,0.0,0.0,0.0,0.0,22.642337423320466,52.48085346651449,66.26889038026617,74.55726042044061,78.20429679754378,86.98021801655202,105.0983108394345,89.2816899197871,51.56429564016357,28.473436725553736,14.139304101651616,1.5016832240458104,0.0,0.0,0.0,0.0,0.0,0.0,0.0,0.0,0.0,0.0,0.0,0.0,11.174967341104429,27.186096867530654,43.02223263095027,115.51251918889407,127.66226897219444,133.27902490840498,129.6319885313018,118.98360205657558,99.03271349646296,68.23860993937355,16.323367026781725,4.797452413249036,0.0,0.0,0.0,0.0,0.0,0.0,0.0,0.0,0.0,0.0,0.0,0.0,23.50035071835473,58.68241488494825,54.39202849430522,75.88362996600813,97.37491152223936,127.46744044994392,123.39139742532362,112.50883282533077,93.98188802964673,66.83450093418884,19.46333738127888,2.7887031665972155,0.0,0.0,0.0,0.0,0.0,0.0,0.0,0.0,0.0,0.0,0.0,0.0,3.9979836495314216,20.30183583254093,35.455271979404564,38.63395210597448,56.907843763563044,82.10470622821408,89.9839043801153,87.35100004822417,99.03303341193458,46.59120963296456,15.153436146863632,1.9892344028796012,0.0,0.0,0.0,0.0,0.0,0.0,0.0,0.0,0.0,0.0,0.0,0.0,26.30856872872417,65.89842826406569,99.26689162172957,122.47483959897268,135.89241439652392,141.08016368521731,137.3745827767975,125.1659685467088,104.6494694326735,74.55726042044061,37.11307395362814,5.538696561121669,0.0,0.0,0.0,0.0,0.0,0.0,0.0,0.0,0.0,0.0,0.0,0.2728878973393857,26.874179282646843,64.08450753966436,96.2827201019385,115.55154887643852,128.96912367398969,133.96140460948928,135.28777415505678,118.8863477531862,99.01319865269069,70.59830645845362,35.962338002010576,5.733844998843856,0.0,0.0,0.0,0.0,0.0,0.0,0.0,0.0,0.0,0.0,0.0,0.9946172014398008,28.142004296897696,66.03503217047121,97.64811933505042,119.705331360676,131.77734168435916,135.46340774900676,132.2258631756485,121.22652942849405,102.01656510078234,73.11412172771145,37.56159544491748,6.1043071150443335,0.0,0.0,0.0,0.0,0.0,0.0,0.0,0.0,0.0,0.0,0.0,0.7217293041004151,24.280304638300127,46.86409753030394,70.73491036485915,79.53034642763961,98.93545919307353,84.97146876990021,111.53405038313488,60.535365296893985,63.28503877594677,69.11613807818004,33.875529380269874,5.519181717349451,0.0,0.0,0.0,0.0,0.0,0.0,0.0,0.0,0.0,0.0,0.0,0.0,22.466703829370502,34.67499814398749,32.25675709359075,35.65042041712674,56.615121106979764,73.83585103181187,43.99733498861785,41.2473415940934,42.378562701938726,26.30856872872417,7.976452455290621,3.2567395016587875,0.0,0.0,0.0,0.0,0.0,0.0,0.0,0.0,0.0,0.0,0.0,0.0,9.010099344274863,26.932723813963488,25.528614808778773,121.77262513864449,138.5058038846428,144.57076139667103,137.21846402661973,126.00446699797087,105.64408663411328,75.53268269357987,37.34693216342307,6.123821958816554,0.0,0.0,0.0,0.0,0.0,0.0,0.0,0.0,0.0,0.0,0.0,2.203897684374007,31.06731136990045,71.59292365989343,107.04851555476965,131.09464206780316,145.27265594152755,149.69996615404781,144.9021938253271,131.32882019306982,106.541129616692,56.342233209640376,30.813618400861603,6.5918582938781265,0.0,0.0,0.0,0.0,0.0,0.0,0.0,0.0,0.0,0.0,0.0,2.3011519877634243,31.16488558876153,70.36444824865868,103.38196433389427,125.73157910063148,138.85675115707105,143.06907817262518,138.72014725066558,126.33621934209856,105.33216904922944,73.3678146967503,38.10769115506793,6.767171972356419,0.0,0.0,0.0,0.0,0.0,0.0,0.0,0.0,0.0,0.0,0.0,2.7109637069800163,32.04241372756803,70.71539552108695,101.52901392194856,122.5333841302893,134.37121632870588,137.9593882590207,133.62997218083322,122.00648334843945,102.6797498735661,73.7773065004952,38.1659157709129,6.5918582938781265,0.0,0.0,0.0,0.0,0.0,0.0,0.0,0.0,0.0,0.0,0.0,2.9057922292305274,31.45728832987314,69.66223378833048,101.29515571215359,122.6696681212232,118.04784930192413,140.12425625585027,136.2823913564966,124.75647674296391,104.6689842764457,73.09460688393924,37.91254271734573,6.669917668967002,0.0,0.0,0.0,0.0,0.0,0.0,0.0,0.0,0.0,0.0,0.0,3.0814258231804947,30.462671128433342,67.16593336284488,68.82373533706843,61.763840708128726,69.48692010985219,31.242625048378734,97.47280565657213,121.61650638846672,100.320053354486,71.1834318561485,35.74767472051617,6.786686816128638,0.0,0.0,0.0,0.0,0.0,0.0,0.0,0.0,0.0,0.0,0.0,2.9838516043194017,29.56562814585463,42.63225567097757,76.17603270711973,117.79415633288531,101.29515571215359,135.48292259277895,131.26995574628143,120.64140403079917,101.82173657853184,73.66021743786192,37.581110288689686,6.88426103498973,0.0,0.0,0.0,0.0,0.0,0.0,0.0,0.0,0.0,0.0,0.0,3.4714027831531933,30.09220901223286,64.72817746867592,77.09259053347067,93.76722474815232,41.16928221900452,88.61882506247504,112.09934102158589,93.90382865455786,54.64540154787238,35.455271979404564,16.57705999582057,6.338165324839284,0.0,0.0,0.0,0.0,0.0,0.0,0.0,0.0,0.0,0.0,0.0,2.9057922292305274,5.109689913604535,20.53601395780755,26.718060532469085,33.03703092900783,62.85603212842961,93.1625845066852,55.289071476883926,52.03233197522514,31.418258642328702,26.269539041179733,15.835815847947936,6.88426103498973,0.0,0.0,0.0,0.0,0.0,0.0,0.0,0.0,0.0,0.0,0.0,1.872145340246289,10.745640778115618,68.9993689310184,73.38732954052252,87.33148520445197,92.67503332785142,87.4095445795408,98.36984863915087,87.85806607083019,82.24131013461962,56.94687345110747,36.70326223441153,7.469386432684613,0.0,0.0,0.0,0.0,0.0,0.0,0.0,0.0,0.0,0.0,0.0,0.19514843772218668,1.8136008089296327,7.371812213823521,11.369795863354945,11.77928766709986,18.80015260849512,23.20762806177146,54.11914059696583,47.68308113779378,36.13797159596054,23.38326165572143,6.68943251273922,0.0,0.0,0.0,0.0,0.0,0.0,0.0,0.0,0.0,0.0,0.0,0.0,4.719712953631836,34.4996844655092,72.17804905758831,100.53439672050872,120.34900128968756,132.18683348810404,135.9119292402961,131.97217020660966,121.40216302244404,101.93882564116512,74.10873892915127,39.27762203498602,7.605990339090145,0.0,0.0,0.0,0.0,0.0,0.0,0.0,0.0,0.0,0.0,0.0,5.129204757376753,34.51919930928142,69.99398613245819,98.48661778631248,118.35976688680796,107.8674991622595,134.8779624358402,129.74907759393508,119.04214658789223,99.48155490322395,22.349614766737183,38.69249663729113,7.917907923973968,0.0,0.0,0.0,0.0,0.0,0.0,0.0,0.0,0.0,0.0,0.0,5.2654887483106085,35.669615345427296,74.38194674196231,105.975838978241,127.83790256614436,140.4556886845063,144.0441805302928,123.39139742532362,97.68714902259487,107.7699249433984,77.09259053347067,33.36846335766387,7.937422767746187,0.0,0.0,0.0,0.0,0.0,0.0,0.0,0.0,0.0,0.0,0.0,5.538696561121669,35.962338002010576,74.28437252310124,105.60537686204052,127.38938107485504,140.22183047471137,143.9856359989761,140.2608601622558,128.11079046348377,107.41897767097015,77.61917139984887,24.728826129589486,8.093541517923935,0.0,0.0,0.0,0.0,0.0,0.0,0.0,0.0,0.0,0.0,0.0,5.772554770916617,36.0989419084161,71.6709830349823,103.67468699047757,124.9711400244583,137.27700855793637,140.82647071617845,136.8870315979637,124.58084314901392,70.40347793620313,73.58215806277303,38.90715991878554,8.659152071846602,0.0,0.0,0.0,0.0,0.0,0.0,0.0,0.0,0.0,0.0,0.0,6.084792271272116,36.33280011821105,71.90516116024892,100.51520179220819,120.17336769573757,131.36784988061422,134.5273350788836,117.24806062273485,120.54382981193804,100.90517875218089,73.81633618803964,40.15515017379251,8.853980594097111,0.0,0.0,0.0,0.0,0.0,0.0,0.0,0.0,0.0,0.0,0.0,6.221396177677647,37.132588797400345,72.70462992396655,103.771941293867,124.30795525167451,135.87289955275165,139.98765234944474,136.22384682517995,94.97650523108652,105.35168389300165,76.21506239466419,40.09692555794752,8.67866691561882,0.0,0.0,0.0,0.0,0.0,0.0,0.0,0.0,0.0,0.0,0.0,3.2762543454310067,13.710297454134482,44.27022288595724,75.70799637205815,95.3076177442709,101.72416235967071,107.04851555476965,127.68178381596664,116.27295826506727,97.41426112525549,70.77394005240359,37.81496849848465,8.464003634124415,0.0,0.0,0.0,0.0,0.0,0.0,0.0,0.0,0.0,0.0,0.0,6.338165324839284,24.65108666997229,53.43644098040985,73.07509204016702,69.33080135967444,119.97853917348708,61.4519231232449,116.39004732770056,75.22044519322438,69.11613807818004,40.350298611514695,21.02356513664134,6.767171972356419,0.0,0.0,0.0,0.0,0.0,0.0,0.0,0.0,0.0,0.0,0.0,1.891660184018508,12.169584542544232,57.980520340091715,42.866113880772524,83.54816483641494,97.14105331244444,99.05254825570681,47.624856521948786,46.72749362389842,46.805552998987295,33.816984848953226,19.248674099784477,5.733844998843856,0.0,0.0,0.0,0.0,0.0,0.0,0.0,0.0,0.0,0.0,0.0,6.747657128584199,17.825050250827537,51.42769173375802,71.37858029387071,47.25407449027664,107.53606673360346,113.97180627730378,88.17030357118568,77.44385772137059,50.842566336063136,35.61139072958231,18.254056898344672,6.045762583727679,0.0,0.0,0.0,0.0,0.0,0.0,0.0,0.0,0.0,0.0,0.0,0.19514843772218668,18.156802594955252,4.309901234415244,6.630887981422562,25.47007027746212,51.40817688998582,66.32743491158283,52.441823778970054,47.17601511518777,53.6702991902048,43.52929865355628,24.68979644204505,7.098924316484137,0.0,0.0,0.0,0.0,0.0,0.0,0.0,0.0,0.0,0.0,0.0,0.0,21.82303390035896,23.071344070837608,22.115756556942237,86.9805379320237,73.38732954052252,43.08077716226693,54.91860936068343,35.864763783149485,31.37922895478427,29.370479708132446,7.469386432684613,4.095557868392516,0.0,0.0,0.0,0.0,0.0,0.0,0.0,0.0,0.0,0.0,0.0,1.9306898715629452,5.9286735210943675,14.665884968029845,55.13295272670618,124.83453611805277,135.15117024865123,139.0128699072488,119.39341377579218,125.10742401539216,105.64408663411328,75.27898972454102,41.14976737523231,9.341531772930905,0.0,0.0,0.0,0.0,0.0,0.0,0.0,0.0,0.0,0.0,0.0,7.566960651545707,39.37519625384711,74.38194674196231,101.39272993101469,120.17336769573757,130.84126901423602,133.59126240876046,129.18346704001246,118.08655907399691,99.32543615304621,72.7826892990554,39.706628682503144,8.853980594097111,0.0,0.0,0.0,0.0,0.0,0.0,0.0,0.0,0.0,0.0,0.0,7.5279309640012695,38.92667476255775,73.3678146967503,99.6958982692467,117.48223874800146,127.68178381596664,130.43145729501938,126.99908419941065,116.85808366276214,98.95497403684573,72.95832289300539,40.17466501756472,9.166218094452613,0.0,0.0,0.0,0.0,0.0,0.0,0.0,0.0,0.0,0.0,0.0,8.054511830379496,39.27762203498602,74.10873892915127,101.08081234613087,119.78339073576491,130.23630885729722,133.02533193936614,134.81973781999523,118.65216962791956,100.84663422086423,74.55726042044061,41.09154275938732,9.517165366880873,0.0,0.0,0.0,0.0,0.0,0.0,0.0,0.0,0.0,0.0,0.0,8.210630580557247,39.06327866896329,73.13395648695536,99.32543615304621,118.06736414569636,128.14982015102822,130.78272448291938,118.2036481366302,116.40956217147276,98.33081895160643,72.00273537911,39.80420290136424,9.731508732903599,0.0,0.0,0.0,0.0,0.0,0.0,0.0,0.0,0.0,0.0,0.0,8.288370040174447,38.84861538746888,70.55959668638087,101.84093150683235,120.66091887457138,117.13097156010151,135.34631868637342,130.93852331762542,119.52969776672606,101.23661118083693,72.27562327644941,39.99935133908643,9.790053264220255,0.0,0.0,0.0,0.0,0.0,0.0,0.0,0.0,0.0,0.0,0.0,7.566960651545707,32.76382311619676,61.82238523944539,88.34561724966396,63.46067236989675,68.18006540805689,117.40417937291258,115.6296082515274,106.11212296917485,78.36041554772153,71.22246154369294,35.02626533188743,10.00471654571466,0.0,0.0,0.0,0.0,0.0,0.0,0.0,0.0,0.0,0.0,0.0,9.185732938224831,34.75305751907637,57.453939473713504,78.69184797637756,81.1100890267743,98.50645254555636,109.83721872136688,104.23997762892857,83.11883827342612,48.17063231662757,34.909176269254125,25.00203394240055,7.216013379117447,0.0,0.0,0.0,0.0,0.0,0.0,0.0,0.0,0.0,0.0,0.0,2.164867996829569,25.00203394240055,46.357031507697926,62.095273136784776,88.22852818703066,93.3382181006352,104.59092490135684,123.56671110380192,111.88499765556314,94.43040952093607,69.03839861856284,37.83448334225686,10.453238037004015,0.0,0.0,0.0,0.0,0.0,0.0,0.0,0.0,0.0,0.0,0.0,6.9428055663063875,21.82303390035896,45.36241430625814,65.13766927242085,60.457305921805116,62.621854003163,93.55256146665792,89.34023445110377,101.10032718990308,81.57812536183587,70.05253066377486,38.96570445010219,10.823700153204497,0.0,0.0,0.0,0.0,0.0,0.0,0.0,0.0,0.0,0.0,0.0,9.40007630424756,38.80958569992443,72.6656002364221,99.9300763945133,93.27967356931852,125.43917635951986,127.87661233821716,123.82040407284077,112.95735431662014,49.57506123728396,70.988603333898,39.19956265989715,10.70693100604286,0.0,0.0,0.0,0.0,0.0,0.0,0.0,0.0,0.0,0.0,0.0,9.127188406908177,38.45863842749618,71.6514681912101,58.897078166442654,100.72954515823092,129.22249672755692,132.42069169789906,123.74234469775189,96.73156150869951,76.02023387241367,57.29782072353575,31.02828168235601,8.132571205468372,0.0,0.0,0.0,0.0,0.0,0.0,0.0,0.0,0.0,0.0,0.0,5.597241092438325,1.4821683802735917,20.945505761552468,41.2473415940934,93.27967356931852,63.53841182951393,55.34761600820058,85.32273595780012,86.3173531592399,44.95292250251322,30.44315628466112,21.70594483772565,11.311251332038285,0.0,0.0,0.0,0.0,0.0,0.0,0.0,0.0,0.0,0.0,0.0,10.160835295892413,43.49026896601185,80.73962691057382,109.21306363612757,128.69591586117866,139.61719023324423,141.9573719085521,136.73091284778593,124.99033495275884,105.48796788393551,78.04817804736602,42.69048028682256,11.447855238443813,0.0,0.0,0.0,0.0,0.0,0.0,0.0,0.0,0.0,0.0,0.0,10.18035013966463,41.83246699178829,75.18141550567994,101.5875584532652,119.33486924447551,129.28104125887356,131.91362567529302,128.75446039249528,117.28709031027927,99.85201701942444,73.79682134426743,41.73489277292719,11.408825550899381,0.0,0.0,0.0,0.0,0.0,0.0,0.0,0.0,0.0,0.0,0.0,5.772554770916617,41.18879706277674,74.28437252310124,100.51488187673651,118.90586259695841,129.08589282115136,131.71879715304252,92.71406301539587,118.08655907399691,99.36446584059065,73.4849037593836,41.30588612541006,11.252706800721633,0.0,0.0,0.0,0.0,0.0,0.0,0.0,0.0,0.0,0.0,0.0,10.160835295892413,39.862747432680905,72.00273537911,97.41426112525549,115.04416293836084,124.85405096182501,127.48695529371615,110.28574021265624,115.08319262590528,23.695179240605245,37.288387632106414,40.97445369675402,12.0329806361387,0.0,0.0,0.0,0.0,0.0,0.0,0.0,0.0,0.0,0.0,0.0,10.628871630953984,32.588509437718464,71.20294669992073,96.3022349457107,113.52328478601449,123.35236773777916,109.34966754253307,83.25544217983166,32.217727406046315,86.74635980675707,56.28368867832373,40.40884314283135,12.26683884593365,0.0,0.0,0.0,0.0,0.0,0.0,0.0,0.0,0.0,0.0,0.0,10.53129741209289,39.16053297235271,70.96876857465409,96.28304001741016,113.97180627730378,123.99571775131905,69.11613807818004,125.2245130780255,113.11347306679791,95.9320927449819,70.988603333898,34.558228996825854,11.974436104822045,0.0,0.0,0.0,0.0,0.0,0.0,0.0,0.0,0.0,0.0,0.0,10.394693505687359,39.940806807769775,73.60167290654525,100.14441976053604,118.4963707932135,128.98863851776196,131.91394559076463,128.67640101740645,117.85270086420195,99.55929436284114,71.63195334743786,41.14976737523231,12.072010323683138,0.0,0.0,0.0,0.0,0.0,0.0,0.0,0.0,0.0,0.0,0.0,10.51178256832067,39.492285316480434,71.02763302144244,99.13028771532402,118.32073719926352,128.69591586117866,131.5041338715481,127.74032834728331,116.83856881898993,95.67839977594306,70.71539552108695,40.77930525903182,12.169584542544232,0.0,0.0,0.0,0.0,0.0,0.0,0.0,0.0,0.0,0.0,0.0,6.552828606333689,38.18543061468512,64.72817746867592,86.80490433807371,113.13298791057012,114.04986565239271,104.37658153533407,115.14173715722195,97.55054511618934,87.0777922354131,63.30455361971898,40.135955245491964,12.325383377250304,0.0,0.0,0.0,0.0,0.0,0.0,0.0,0.0,0.0,0.0,0.0,10.765155621887839,33.38797820143609,69.89641191359709,94.29380561453054,111.12423866391829,120.46609035232086,123.70331501020745,120.50480012439364,66.50306850553278,77.44385772137059,69.13565292195226,33.583126639158266,12.851964243628535,0.0,0.0,0.0,0.0,0.0,0.0,0.0,0.0,0.0,0.0,0.0,11.057878278471119,38.38057905240731,68.6871314306629,93.1625845066852,110.44185896283399,120.29045675837091,123.62525563511856,120.03676378933207,109.56401090855582,80.85671597320712,64.04579776759161,30.67701449445607,11.623488832393784,0.0,0.0,0.0,0.0,0.0,0.0,0.0,0.0,0.0,0.0,0.0,9.497650523108653,39.141338044052155,61.412893435700475,80.09595698156228,100.55391156428095,86.6683004316682,90.33485165254356,96.20498064232127,85.63465354268394,84.81566993519412,62.50508485600136,24.397393700933446,11.954921261049824,0.0,0.0,0.0,0.0,0.0,0.0,0.0,0.0,0.0,0.0,0.0,9.088158719363737,37.405476694739725,60.59358991273897,82.59225740704787,100.74906000200312,109.07645972972205,117.52094852007423,109.7396445025058,100.43714241711932,97.04347909358331,72.54883108926047,42.26147363930542,11.993950948594264,0.0,0.0,0.0,0.0,0.0,0.0,0.0,0.0,0.0,0.0,0.0,9.985201701942444,30.61878987861109,60.67164928782785,82.20260036254687,95.71742946348749,104.45432099495129,112.3335191468525,105.23459483036837,103.771941293867,85.24467658271125,56.225144147007065,37.54208060114525,12.208614230088667,0.0,0.0,0.0,0.0,0.0,0.0,0.0,0.0,0.0,0.0,0.0,10.00471654571466,37.71739427962355,54.39202849430522,80.4081944819178,90.86143251892179,78.22381164131599,41.55957909444889,75.55187762188041,94.80055172166487,76.23457723843639,59.61848755507138,37.30790247587864,12.383927908566964,0.0,0.0,0.0,0.0,0.0,0.0,0.0,0.0,0.0,0.0,0.0,10.336148974370703,36.76180676572819,64.96235559394255,81.55861051806366,100.22247913562492,104.53270028551184,113.3083015890484,102.075109632099,90.4516207997052,72.35368265153828,57.0639625137408,36.37182980575549,4.934056319654567,0.0,0.0,0.0,0.0,0.0,0.0,0.0,0.0,0.0,0.0,0.0,9.439105991791996,39.39471109761933,70.26687402979759,94.7228122620477,111.59227499897986,121.1679848971774,123.9371732200024,120.71946340588804,110.7537765477178,94.52766382432549,70.96908849012578,41.61812362576556,13.359030266234546,0.0,0.0,0.0,0.0,0.0,0.0,0.0,0.0,0.0,0.0,0.0,9.69279896083084,39.16053297235271,69.25274198458557,93.63094075721848,110.55894802546732,119.93950948594265,58.468071518925505,66.65886734023887,82.74837615722564,93.47482200704071,69.33080135967444,40.83784979034848,12.40344275233918,0.0,0.0,0.0,0.0,0.0,0.0,0.0,0.0,0.0,0.0,0.0,11.350281019582724,21.413542096614044,67.73154391676754,91.6413864388672,108.53068393504324,91.68041612641164,85.55659416759508,53.514500355498726,12.930023618717408,43.50978380978405,47.87822957551596,33.797470005181005,12.657135721378026,0.0,0.0,0.0,0.0,0.0,0.0,0.0,0.0,0.0,0.0,0.0,10.433723193231797,40.17466501756472,72.43142211115547,97.96035683540592,115.76589224246125,125.94592246665421,128.96880375851805,108.06232768451002,116.62390553749552,98.74031075535132,74.30388736687344,43.802186550895655,13.515149016412295,0.0,0.0,0.0,0.0,0.0,0.0,0.0,0.0,0.0,0.0,0.0,10.921274372065588,38.79007085615223,68.74567596197956,92.65551848407921,109.4664366896947,119.0034368158195,122.31872084879494,119.62727198558714,110.0515620873896,93.9428583421023,51.583810483935785,35.1820641665935,14.002700195246087,0.0,0.0,0.0,0.0,0.0,0.0,0.0,0.0,0.0,0.0,0.0,10.66790131849842,39.297136878758224,44.52391585499608,94.1376868643528,61.198230154206065,121.63602123223896,122.9038462464898,93.78673959192456,110.79280623526226,94.2742907707583,71.51518420027624,42.53468145211647,13.8075517575239,0.0,0.0,0.0,0.0,0.0,0.0,0.0,0.0,0.0,0.0,0.0,10.66790131849842,38.88764507501332,69.1746826094967,93.63094075721848,109.4469218459225,89.7497262548487,123.72282985397966,119.23729502561443,109.79818903382244,93.80625443569677,70.50105215506422,42.163899420444324,14.197848632968274,0.0,0.0,0.0,0.0,0.0,0.0,0.0,0.0,0.0,0.0,0.0,11.01884859092668,27.829766796542202,68.47278806464017,92.01184855506769,108.41359487240993,118.06736414569636,120.95364153115464,117.30660515405151,107.90652884980395,67.9071775107175,48.13160262908314,40.09692555794752,13.027597837578506,0.0,0.0,0.0,0.0,0.0,0.0,0.0,0.0,0.0,0.0,0.0,11.01884859092668,38.302519677318436,67.71202907299532,91.87556456413381,108.82276676068321,64.66963293735925,86.35638284678438,18.956271358672865,104.35706669156187,93.35741302893574,72.72414476773876,43.29512052828965,13.4175747975512,0.0,0.0,0.0,0.0,0.0,0.0,0.0,0.0,0.0,0.0,0.0,10.784670465660056,38.45863842749618,68.97985408724618,93.20161419422966,110.42234411906176,83.17738280474279,124.85405096182501,99.03303341193458,47.039731124253905,5.01211569474344,7.6645348704068,7.079409472711919,4.15410239970917,0.0,0.0,0.0,0.0,0.0,0.0,0.0,0.0,0.0,0.0,0.0,10.784670465660056,38.49766811504062,68.12152087674022,92.53874933691758,109.7396445025058,102.99166745844991,53.534015199270925,80.09627689703395,111.4364761642738,94.00140287341894,71.12488732483186,36.70326223441153,14.938772865369227,0.0,0.0,0.0,0.0,0.0,0.0,0.0,0.0,0.0,0.0,0.0,6.143336802588772,37.65884974830689,66.93207515304992,73.93342525067297,108.68648276974932,76.39069598861414,48.09289285701036,72.62657054887767,92.75309270294031,61.412893435700475,16.810918205615522,1.0726765765286754,13.827066601296115,0.0,0.0,0.0,0.0,0.0,0.0,0.0,0.0,0.0,0.0,0.0,10.784670465660056,38.04914662375127,68.2971544706902,93.12355481914078,108.7447073855943,85.400795332889,60.925342256866685,90.00309930841586,94.04011264549169,94.07914233303616,68.9993689310184,18.29308658588911,8.307884883946668,0.0,0.0,0.0,0.0,0.0,0.0,0.0,0.0,0.0,0.0,0.0,10.765155621887839,38.1659157709129,68.02426657335081,92.4408552025848,109.6225554398725,80.01821752194508,27.829766796542202,106.67773352309752,96.65382204908232,70.61782130222585,8.366429415263323,14.665884968029845,10.609356787181763,0.0,0.0,0.0,0.0,0.0,0.0,0.0,0.0,0.0,0.0,0.0,6.6504028251947815,24.0659612722774,20.0874924665182,21.8620635879034,36.37182980575549,51.759124162414075,100.12490491676382,87.83855122705795,26.60129138530745,5.070660226060097,22.66185226709269,16.44045608941504,9.907142326853569,0.0,0.0,0.0,0.0,0.0,0.0,0.0,0.0,0.0,0.0,0.0,10.492267724548453,38.10769115506793,68.16055056428466,93.0458153595236,108.39408002863777,97.23862753130553,122.20163178616163,118.47653603396958,108.82308667615486,93.12355481914078,72.25610843267721,43.58784318487293,14.295102936357686,0.1366039064055307,0.0,0.0,0.0,0.0,0.0,0.0,0.0,0.0,0.0,0.0,9.224762625769268,38.10769115506793,69.33080135967444,94.7228122620477,113.09427813849732,90.12018837104915,112.82107032568628,86.47347190941767,101.7046475158985,90.99803642532734,73.2702404778892,43.15851662188414,15.816301004175715,0.1366039064055307,0.0,0.0,0.0,0.0,0.0,0.0,0.0,0.0,0.0,0.0,8.581092696757727,37.853998186029074,67.5172005507448,85.12758752007794,108.4721394037266,104.70801396399011,100.320053354486,112.19691524044698,77.17064990855955,80.58350816039606,72.23659358890497,43.93879045730121,14.275588092585465,0.15611875017774934,0.0,0.0,0.0,0.0,0.0,0.0,0.0,0.0,0.0,0.0,10.238574755509608,39.238592347441575,70.32541856111422,94.62523804318657,101.1000072744314,106.4825850853753,130.58757604519718,126.21913027946528,116.46778678731778,100.12490491676382,74.01148462576184,45.03098187760209,14.022215039018302,0.2924027411116043,0.0,0.0,0.0,0.0,0.0,0.0,0.0,0.0,0.0,0.0,8.971069656730425,31.69114653966809,57.141701973358,82.94352459494782,97.60908964750601,106.24872687558037,112.23594492799137,119.62727198558714,109.6420702836447,94.15720170812504,71.72952756629897,43.64606780071792,14.470736530307656,0.117089062633312,0.0,0.0,0.0,0.0,0.0,0.0,0.0,0.0,0.0,0.0,9.517165366880873,35.162549322821285,56.732210169613076,54.742975766733466,46.47412057033125,75.86411512223592,103.63533738746145,75.86411512223592,96.14643611100462,77.7557753062544,60.63261960028339,15.17295099063585,12.4229575961114,0.0,0.0,0.0,0.0,0.0,0.0,0.0,0.0,0.0,0.0,0.0,9.224762625769268,29.117106654565283,68.76519080575179,33.699895786319914,12.481502127428055,9.146703250680392,37.405476694739725,70.32541856111422,119.27632471315887,86.21977894037883,55.64001874931218,39.6480841511865,16.030964285670127,0.3119175848838229,0.0,0.0,0.0,0.0,0.0,0.0,0.0,0.0,0.0,0.0,0.0,8.775921219008238,35.14335439452074,53.90447731547143,97.25814237507774,112.99670391963623,129.4566748528235,107.7699249433984,95.07375953447595,52.18813080993121,64.84526653130922,33.62215632670271,14.412191998991,0.15611875017774934,0.0,0.0,0.0,0.0,0.0,0.0,0.0,0.0,0.0,0.0,8.67866691561882,37.56159544491748,57.04444766996858,91.97313878299492,108.54987886334379,118.53508056528624,108.21844643468776,102.73829440488274,110.67571717262894,93.76722474815232,71.55421388782068,43.919275613528974,14.880228334052573,0.2924027411116043,0.0,0.0,0.0,0.0,0.0,0.0,0.0,0.0,0.0,0.0,10.082775920803538,37.19081341324532,67.30253726925041,91.71944581395607,109.31063785498866,120.1928825395098,123.43010719739637,72.68511508019431,113.0158988479368,95.63937008839859,69.36983104721888,44.73825922101881,14.899743177824789,0.4680363350615724,0.0,0.0,0.0,0.0,0.0,0.0,0.0,0.0,0.0,0.0,9.40007630424756,37.01549973476703,67.77057360431198,79.78403939667845,61.00340163195557,24.35836401338901,122.8318652653628,121.10944036586076,116.62390553749552,81.73424411201363,24.280304638300127,34.909176269254125,15.036347084230323,0.4680363350615724,0.0,0.0,0.0,0.0,0.0,0.0,0.0,0.0,0.0,0.0,9.77053842044804,36.50843371216102,66.87353062173328,92.01184855506769,110.85103085110724,121.2850739598107,124.17551024640079,19.619456131456626,14.334132623902125,44.17264866709615,56.927358607335265,31.34019926723983,10.570327099637328,0.0,0.0,0.0,0.0,0.0,0.0,0.0,0.0,0.0,0.0,0.0,8.38594425903554,36.56697824347768,67.14641851907265,92.4606899618287,110.50008357867895,25.95762145629591,23.246657749315897,22.213010860331654,41.30588612541006,53.6702991902048,57.27830587976353,43.607038113173466,15.016832240458102,0.0,0.0,0.0,0.0,0.0,0.0,0.0,0.0,0.0,0.0,0.0,5.967703208638802,33.5050672640694,64.18208175852547,91.95362393922268,77.65820108739334,33.699895786319914,90.47145555894909,93.55256146665792,74.01148462576184,75.961689341097,36.74229192195597,44.25070804218502,8.444488790352196,0.0,0.0,0.0,0.0,0.0,0.0,0.0,0.0,0.0,0.0,0.0,10.472752880776234,21.02356513664134,53.96302184678808,71.71001272252673,4.076043024620296,9.40007630424756,13.4175747975512,28.863413685526442,61.27628952929494,92.01216847053934,59.07271176039262,2.0282640904240385,15.192465834408072,0.0,0.0,0.0,0.0,0.0,0.0,0.0,0.0,0.0,0.0,0.0,9.127188406908177,36.13797159596054,65.89842826406569,90.6467692374274,107.3409182958813,122.06502787975607,125.59529510969763,117.4236942166848,108.33553549732108,80.2130460441956,70.54008184260866,43.178031465656346,16.732858830526645,0.0,0.0,0.0,0.0,0.0,0.0,0.0,0.0,0.0,0.0,0.0,9.614739585741964,34.772572362848585,63.16794971331346,89.4573235137371,108.37456518486549,93.90382865455786,102.50411627961613,120.91461184361023,110.55862810999564,93.66965052929123,68.86276502461286,42.30050332684985,14.490251374079875,0.0,0.0,0.0,0.0,0.0,0.0,0.0,0.0,0.0,0.0,0.0,9.478135679336432,35.065295019431865,63.77258995478056,87.91661060214683,94.17671655189724,108.10135737205444,104.20094794138413,102.8745783958166,92.40214543051205,80.46673901323443,62.05656336471202,42.08615996082713,15.816301004175715,0.0,0.0,0.0,0.0,0.0,0.0,0.0,0.0,0.0,0.0,0.0,9.088158719363737,34.38259540287589,62.40751063714028,85.96640588681167,104.27900731647301,87.35100004822417,72.88026351791652,117.11145671632929,17.844565094599755,28.20022891274268,31.69114653966809,43.8412162384401,14.724109583874824,0.0,0.0,0.0,0.0,0.0,0.0,0.0,0.0,0.0,0.0,0.0,9.146703250680392,34.558228996825854,62.97312119106294,86.6683004316682,104.02531434743416,114.40081292482095,77.54143194023169,72.7826892990554,108.82308667615486,92.26554152410652,70.50105215506422,43.88024592598453,16.713343986754428,0.117089062633312,0.0,0.0,0.0,0.0,0.0,0.0,0.0,0.0,0.0,0.0,8.620122384302164,35.10432470697631,64.78672199999257,89.5740926608987,107.24334407702018,117.4236942166848,109.31031793951695,103.36244949012207,63.40212783858007,82.26082497839185,65.50845130409299,41.32540096918228,16.362396714326163,0.117089062633312,0.0,0.0,0.0,0.0,0.0,0.0,0.0,0.0,0.0,0.0,8.288370040174447,33.27088913880277,52.5003683102867,79.53066634311129,98.27195450481808,94.62555795865828,97.57037987543323,71.06634279351519,86.51250159696212,72.88026351791652,63.655500892147245,41.26685643786561,5.6948153112994175,0.0,0.0,0.0,0.0,0.0,0.0,0.0,0.0,0.0,0.0,0.0,2.1063234655129133,11.174967341104429,31.34019926723983,36.29377043066661,74.18679830424014,103.47953855275541,96.5562478302212,96.02934704837129,87.31197036067974,67.02964937191102,46.59120963296456,35.533331354493434,13.671267766590045,0.0,0.0,0.0,0.0,0.0,0.0,0.0,0.0,0.0,0.0,0.0,8.54206300921329,21.82303390035896,33.797470005181005,58.507101206469954,88.85268327227,89.55489773259819,83.62590429603212,104.31803700401743,103.03069714599434,77.1316202210151,61.295804373067156,31.69114653966809,11.252706800721633,0.0,0.0,0.0,0.0,0.0,0.0,0.0,0.0,0.0,0.0,0.0,7.293752838734647,33.34894851389165,61.31531921683938,85.32273595780012,77.91189405643215,90.54919501856631,39.37519625384711,111.96305703065201,99.3836607688912,72.17804905758831,18.4882350236113,8.152086049240593,0.0,0.0,0.0,0.0,0.0,0.0,0.0,0.0,0.0,0.0,0.0,0.0,8.483518477896634,33.38797820143609,61.37386374815604,86.06366019020108,105.01993154887396,64.63060324981483,105.60505694656885,106.63870383555307,67.98523688580637,84.93275899782743,55.367130851972796,36.99598489099481,10.628871630953984,0.0,0.0,0.0,0.0,0.0,0.0,0.0,0.0,0.0,0.0,0.0,7.976452455290621,33.85601453649766,63.85064932986944,78.4384749228104,90.99803642532734,96.08789157968796,78.41896007903817,74.49903580459564,92.71406301539587,94.09865717680836,63.67501573591946,41.52054940690447,16.24530765169285,0.117089062633312,0.0,0.0,0.0,0.0,0.0,0.0,0.0,0.0,0.0,0.0,8.210630580557247,33.48555242029718,62.77797275334075,87.81903638328575,105.858430000136,116.66293522503996,106.13163781294708,119.43212354786495,109.99301755607296,94.74232710581992,72.09998968249944,43.97782014484564,14.919258021597008,0.0,0.0,0.0,0.0,0.0,0.0,0.0,0.0,0.0,0.0,0.0,8.074026674151717,33.34894851389165,54.86006482936679,75.70799637205815,70.54008184260866,29.019532435704182,19.19044948393949,47.25407449027664,92.90889153764635,68.08249118919579,56.03031562475655,43.68509748826235,12.013465792366484,0.0,0.0,0.0,0.0,0.0,0.0,0.0,0.0,0.0,0.0,0.0,6.9428055663063875,23.50035071835473,63.9091938611861,36.352314961983275,86.18074925283442,85.67368323022839,20.165551841607076,29.33145002058801,55.97177109343989,54.33348396298856,43.35366505960632,24.163535491138497,4.719712953631836,0.0,0.0,0.0,0.0,0.0,0.0,0.0,0.0,0.0,0.0,0.0,3.5689770020142864,24.8459151922228,9.010099344274863,24.183050334910718,29.019532435704182,55.055213267088966,57.512484005030146,63.85064932986944,67.47817086320038,68.21909509560133,8.581092696757727,21.589175690564012,13.437089641323421,0.0,0.0,0.0,0.0,0.0,0.0,0.0,0.0,0.0,0.0,0.0,2.6133894881189232,19.755740122390485,29.819001199421805,49.76988975953447,113.81568752712609,95.63937008839859,124.69793221164724,82.35839919725294,51.70057963109742,90.373881340088,73.4849037593836,44.543430698768304,15.523898263064112,0.0,0.0,0.0,0.0,0.0,0.0,0.0,0.0,0.0,0.0,0.0,6.533313762561471,34.12922234930872,66.522583349305,95.71742946348749,115.14173715722195,50.62790305456874,105.17605029905172,123.8008892290685,113.81568752712609,98.3890435674514,74.94755729588498,33.992618442903186,14.236558405041029,0.0,0.0,0.0,0.0,0.0,0.0,0.0,0.0,0.0,0.0,0.0,7.098924316484137,33.583126639158266,64.41625988379211,89.96438953634309,107.8674991622595,118.6716844716918,85.24467658271125,120.52463488363752,74.69386432684614,95.87322829819357,72.31465296399385,43.82170139466789,15.796786160403498,0.0,0.0,0.0,0.0,0.0,0.0,0.0,0.0,0.0,0.0,0.0,7.488901276456832,32.68576374110789,53.26080738645989,80.01821752194508,94.27397085528669,105.37119873677388,119.54921261049827,116.66293522503996,53.68981403397702,70.16929981093648,71.04714786521465,43.10029200603914,13.74900722620724,0.0,0.0,0.0,0.0,0.0,0.0,0.0,0.0,0.0,0.0,0.0,7.216013379117447,32.139987946429116,61.49095281078936,86.7853894943015,104.92267724548456,115.70734771114458,119.43244346333664,118.45702119019737,109.31063785498866,94.05962748926392,71.6514681912101,43.236575996973,15.348264669114144,0.0,0.0,0.0,0.0,0.0,0.0,0.0,0.0,0.0,0.0,0.0,6.435739543700375,32.37384615622407,63.46067236989675,89.3594293794043,79.76452455290624,43.02223263095027,124.46407400185228,120.1928825395098,115.45365474210577,99.5007498315245,75.80557059091926,44.73825922101881,14.295102936357686,0.0,0.0,0.0,0.0,0.0,0.0,0.0,0.0,0.0,0.0,0.0,5.792069614688836,32.23724224981854,59.18948090755425,61.880929770762044,28.843898841754218,73.60167290654525,105.8782647593799,95.89306305743746,79.31600306161688,78.90651125787197,53.6702991902048,36.29377043066661,14.158818945423837,0.0,0.0,0.0,0.0,0.0,0.0,0.0,0.0,0.0,0.0,0.0,5.402092654716138,26.367113260040828,54.5871769320274,81.90987770596357,90.45194071517687,105.54683233072384,122.3967802238838,102.54314596716057,94.43040952093607,87.31197036067974,71.55421388782068,37.36644700719528,13.456604485095635,0.0,0.0,0.0,0.0,0.0,0.0,0.0,0.0,0.0,0.0,0.0,5.597241092438325,32.120473102656895,63.98725323627496,89.80795087069366,108.0428128407378,118.74974384678065,85.5761090113673,15.504383419291894,53.573044886815396,91.70025088565552,75.6299369969693,39.18004781612492,13.827066601296115,0.0,0.0,0.0,0.0,0.0,0.0,0.0,0.0,0.0,0.0,0.0,6.260105949750409,25.43104058991768,52.714711676309435,69.1941974532689,95.1323040657926,60.203612952766285,49.73086007199003,70.44250762374755,78.1262374224549,66.522583349305,44.2116783546406,19.970403403884887,8.093541517923935,0.0,0.0,0.0,0.0,0.0,0.0,0.0,0.0,0.0,0.0,0.0,3.0814258231804947,21.881578431675614,24.026931584732967,25.33346637105659,72.88026351791652,62.173332511873646,63.55824658875782,95.50308609746477,89.90584500502644,85.7127129177728,50.55016359495154,21.12113935550244,13.78803691375168,0.0,0.0,0.0,0.0,0.0,0.0,0.0,0.0,0.0,0.0,0.0,5.811584458461055,31.43777348610093,46.23994244506463,46.16188306997575,109.29112301121643,89.43780866996487,88.83316842849777,121.40216302244404,111.43615624880213,96.12724118270408,50.94014055492424,32.354331312451855,4.485534828365212,0.0,0.0,0.0,0.0,0.0,0.0,0.0,0.0,0.0,0.0,0.0,5.6948153112994175,31.45728832987314,62.231877043190316,88.0528945930807,106.36581593821369,116.97485280992376,120.75849309343248,118.00849969890801,43.58784318487293,95.52260094123696,71.02763302144244,42.43710723325539,13.76852206997946,0.0,0.0,0.0,0.0,0.0,0.0,0.0,0.0,0.0,0.0,0.0,5.2654887483106085,31.125855901217093,62.29042157450696,87.87758091460239,105.9172944469243,116.62390553749552,92.48020480560093,123.19624898760141,108.82308667615486,93.8452841232412,71.39809513764294,42.378562701938726,11.857347042188733,0.0,0.0,0.0,0.0,0.0,0.0,0.0,0.0,0.0,0.0,0.0,4.914541475882348,24.533997607338968,62.13430282432921,88.09192428062514,106.71676321064194,117.28709031027927,121.03170090624351,118.28170751171908,109.07645972972205,69.46740526607998,70.79345489617582,41.42297518804337,13.554178703956733,0.0,0.0,0.0,0.0,0.0,0.0,0.0,0.0,0.0,0.0,0.0,2.944821916774965,16.499000620731696,53.163233167598804,50.023582728573324,76.76115810481463,95.4247068069042,40.681731040170725,37.32741731965085,48.09289285701036,82.51451794743069,72.68511508019431,42.22244395176097,13.8075517575239,0.0,0.0,0.0,0.0,0.0,0.0,0.0,0.0,0.0,0.0,0.0,5.109689913604535,30.423641440888904,62.153817668101425,88.85268327227,106.71676321064194,93.45530716326851,123.19624898760141,84.93243908235574,65.17669895996528,76.50778505124745,71.35906545009848,41.61812362576556,12.130554854999795,0.0,0.0,0.0,0.0,0.0,0.0,0.0,0.0,0.0,0.0,0.0,5.148719601148972,30.404126597116687,62.29042157450696,88.4623863968256,106.931
...